/*---------------------------------------------------------------------------*\
| =========                 |                                                 |
| \\      /  F ield         | OpenFOAM: The Open Source CFD Toolbox           |
|  \\    /   O peration     | Version:  2306                                  |
|   \\  /    A nd           | Website:  www.openfoam.com                      |
|    \\/     M anipulation  |                                                 |
\*---------------------------------------------------------------------------*/
Build  : _fbf00d6b-20230626 OPENFOAM=2306 version=2306
Arch   : "LSB;label=32;scalar=64"
Exec   : pimpleFoam
Date   : Nov 27 2023
Time   : 14:21:42
Host   : UNC-PF2BDNF3
PID    : 6791
I/O    : uncollated
Case   : /home/kpathak/OpenFOAM-sims/tutorials/incompressible/pimpleFoam/LES/Phys332_project
nProcs : 1
trapFpe: Floating point exception trapping enabled (FOAM_SIGFPE).
fileModificationChecking : Monitoring run-time modified files using timeStampMaster (fileModificationSkew 5, maxFileModificationPolls 20)
allowSystemOperations : Allowing user-supplied system call operations

// * * * * * * * * * * * * * * * * * * * * * * * * * * * * * * * * * * * * * //
Create time

Create mesh for time = 0


PIMPLE: Operating solver in PISO mode

Reading field p

Reading field U

Reading/calculating face flux field phi

Selecting incompressible transport model Newtonian
Selecting turbulence model type LES
Selecting LES turbulence model Smagorinsky
Selecting LES delta type cubeRootVol
SmagorinskyCoeffs
{
    Ck              0.094;
    Ce              1.048;
}

No MRF models present

Creating finite volume options from "constant/fvOptions"

Selecting finite volume options type meanVelocityForce
    Source: momentumSource
    - selecting all cells
    - selected 60000 cell(s) with volume 16
    Initial pressure gradient = 0

Courant Number mean: 0.151378 max: 0.263174
Courant Number mean: 0.151378 max: 0.263174

Starting time loop

fieldAverage fieldAverage1:
    Restarting averaging for fields:
        U: starting averaging at time 0
        p: starting averaging at time 0

Courant Number mean: 0.151378 max: 0.263174
Time = 0.1

PIMPLE: iteration 1
smoothSolver:  Solving for Ux, Initial residual = 0.00579394, Final residual = 1.55354e-06, No Iterations 2
smoothSolver:  Solving for Uy, Initial residual = 0.0309896, Final residual = 7.3006e-07, No Iterations 3
smoothSolver:  Solving for Uz, Initial residual = 0.0296302, Final residual = 8.39741e-06, No Iterations 2
Pressure gradient source: uncorrected Ubar = 0.133681, pressure gradient = -0.00183954
GAMG:  Solving for p, Initial residual = 0.149416, Final residual = 0.00326707, No Iterations 2
time step continuity errors : sum local = 1.38592e-06, global = 3.86981e-20, cumulative = 3.86981e-20
Pressure gradient source: uncorrected Ubar = 0.133678, pressure gradient = -0.00181387
GAMG:  Solving for p, Initial residual = 0.00658799, Final residual = 4.65572e-07, No Iterations 5
time step continuity errors : sum local = 2.7597e-10, global = -9.58213e-21, cumulative = 2.91159e-20
Pressure gradient source: uncorrected Ubar = 0.133678, pressure gradient = -0.0018129
ExecutionTime = 1.75 s  ClockTime = 1 s

fieldAverage fieldAverage1:
    Reading/initialising field UMean
    Reading/initialising field pMean
    Reading/initialising field UPrime2Mean
    Reading/initialising field pPrime2Mean

fieldAverage fieldAverage1 write:
    Calculating averages

    Writing average fields

Courant Number mean: 0.151313 max: 0.262498
Time = 0.2

PIMPLE: iteration 1
smoothSolver:  Solving for Ux, Initial residual = 0.00634811, Final residual = 7.05727e-07, No Iterations 2
smoothSolver:  Solving for Uy, Initial residual = 0.0310621, Final residual = 4.43426e-06, No Iterations 2
smoothSolver:  Solving for Uz, Initial residual = 0.0295868, Final residual = 3.52468e-06, No Iterations 2
Pressure gradient source: uncorrected Ubar = 0.133307, pressure gradient = 0.00110887
GAMG:  Solving for p, Initial residual = 0.722473, Final residual = 0.0635206, No Iterations 1
time step continuity errors : sum local = 1.41948e-05, global = 3.01948e-20, cumulative = 5.93107e-20
Pressure gradient source: uncorrected Ubar = 0.133309, pressure gradient = 0.00108038
GAMG:  Solving for p, Initial residual = 0.10483, Final residual = 4.61688e-07, No Iterations 8
time step continuity errors : sum local = 6.74179e-11, global = -3.67163e-20, cumulative = 2.25944e-20
Pressure gradient source: uncorrected Ubar = 0.133309, pressure gradient = 0.00107962
ExecutionTime = 4.15 s  ClockTime = 4 s

fieldAverage fieldAverage1 write:
    Calculating averages

    Writing average fields

Courant Number mean: 0.151156 max: 0.262065
Time = 0.3

PIMPLE: iteration 1
smoothSolver:  Solving for Ux, Initial residual = 0.00568758, Final residual = 6.37603e-07, No Iterations 2
smoothSolver:  Solving for Uy, Initial residual = 0.0309408, Final residual = 4.43733e-06, No Iterations 2
smoothSolver:  Solving for Uz, Initial residual = 0.0295704, Final residual = 3.56376e-06, No Iterations 2
Pressure gradient source: uncorrected Ubar = 0.133564, pressure gradient = 0.000105884
GAMG:  Solving for p, Initial residual = 0.397552, Final residual = 0.0354841, No Iterations 1
time step continuity errors : sum local = 5.02211e-06, global = -4.73829e-20, cumulative = -2.47885e-20
Pressure gradient source: uncorrected Ubar = 0.133564, pressure gradient = 0.000115341
GAMG:  Solving for p, Initial residual = 0.035472, Final residual = 9.92719e-07, No Iterations 6
time step continuity errors : sum local = 1.59049e-10, global = -1.25676e-20, cumulative = -3.7356e-20
Pressure gradient source: uncorrected Ubar = 0.133564, pressure gradient = 0.000115598
ExecutionTime = 6.48 s  ClockTime = 6 s

fieldAverage fieldAverage1 write:
    Calculating averages

    Writing average fields

Courant Number mean: 0.151163 max: 0.260699
Time = 0.4

PIMPLE: iteration 1
smoothSolver:  Solving for Ux, Initial residual = 0.00567628, Final residual = 6.38641e-07, No Iterations 2
smoothSolver:  Solving for Uy, Initial residual = 0.0308782, Final residual = 4.42457e-06, No Iterations 2
smoothSolver:  Solving for Uz, Initial residual = 0.0295047, Final residual = 3.55452e-06, No Iterations 2
Pressure gradient source: uncorrected Ubar = 0.1335, pressure gradient = 0.000115928
GAMG:  Solving for p, Initial residual = 0.0804838, Final residual = 0.00113696, No Iterations 2
time step continuity errors : sum local = 1.68118e-07, global = -6.17942e-20, cumulative = -9.91503e-20
Pressure gradient source: uncorrected Ubar = 0.1335, pressure gradient = 0.000115893
GAMG:  Solving for p, Initial residual = 0.00351117, Final residual = 7.33376e-07, No Iterations 4
time step continuity errors : sum local = 1.27672e-10, global = -2.33271e-21, cumulative = -1.01483e-19
Pressure gradient source: uncorrected Ubar = 0.1335, pressure gradient = 0.000115901
ExecutionTime = 8.32 s  ClockTime = 8 s

fieldAverage fieldAverage1 write:
    Calculating averages

    Writing average fields

Courant Number mean: 0.151159 max: 0.258142
Time = 0.5

PIMPLE: iteration 1
smoothSolver:  Solving for Ux, Initial residual = 0.00566625, Final residual = 6.39058e-07, No Iterations 2
smoothSolver:  Solving for Uy, Initial residual = 0.0308741, Final residual = 4.4069e-06, No Iterations 2
smoothSolver:  Solving for Uz, Initial residual = 0.0295, Final residual = 3.564e-06, No Iterations 2
Pressure gradient source: uncorrected Ubar = 0.1335, pressure gradient = 0.000116123
GAMG:  Solving for p, Initial residual = 0.0836802, Final residual = 0.00118928, No Iterations 2
time step continuity errors : sum local = 1.80963e-07, global = 8.86568e-21, cumulative = -9.26173e-20
Pressure gradient source: uncorrected Ubar = 0.1335, pressure gradient = 0.000116086
GAMG:  Solving for p, Initial residual = 0.00359024, Final residual = 5.16745e-07, No Iterations 4
time step continuity errors : sum local = 9.51404e-11, global = -3.29476e-20, cumulative = -1.25565e-19
Pressure gradient source: uncorrected Ubar = 0.1335, pressure gradient = 0.000116095
ExecutionTime = 10.31 s  ClockTime = 10 s

fieldAverage fieldAverage1 write:
    Calculating averages

    Writing average fields

Courant Number mean: 0.151152 max: 0.25447
Time = 0.6

PIMPLE: iteration 1
smoothSolver:  Solving for Ux, Initial residual = 0.00565851, Final residual = 6.41334e-07, No Iterations 2
smoothSolver:  Solving for Uy, Initial residual = 0.0308686, Final residual = 4.37259e-06, No Iterations 2
smoothSolver:  Solving for Uz, Initial residual = 0.0294944, Final residual = 3.57569e-06, No Iterations 2
Pressure gradient source: uncorrected Ubar = 0.1335, pressure gradient = 0.000116243
GAMG:  Solving for p, Initial residual = 0.0855763, Final residual = 0.00843053, No Iterations 1
time step continuity errors : sum local = 1.31803e-06, global = 8.45058e-21, cumulative = -1.17114e-19
Pressure gradient source: uncorrected Ubar = 0.1335, pressure gradient = 0.000116207
GAMG:  Solving for p, Initial residual = 0.00902855, Final residual = 8.6388e-07, No Iterations 4
time step continuity errors : sum local = 1.6612e-10, global = 2.89327e-20, cumulative = -8.81815e-20
Pressure gradient source: uncorrected Ubar = 0.1335, pressure gradient = 0.000116213
ExecutionTime = 12.98 s  ClockTime = 13 s

fieldAverage fieldAverage1 write:
    Calculating averages

    Writing average fields

Courant Number mean: 0.151142 max: 0.255874
Time = 0.7

PIMPLE: iteration 1
smoothSolver:  Solving for Ux, Initial residual = 0.00565155, Final residual = 6.45459e-07, No Iterations 2
smoothSolver:  Solving for Uy, Initial residual = 0.0308616, Final residual = 4.3306e-06, No Iterations 2
smoothSolver:  Solving for Uz, Initial residual = 0.0294904, Final residual = 3.5887e-06, No Iterations 2
Pressure gradient source: uncorrected Ubar = 0.1335, pressure gradient = 0.000116305
GAMG:  Solving for p, Initial residual = 0.0865354, Final residual = 0.00842185, No Iterations 1
time step continuity errors : sum local = 1.35222e-06, global = -6.47931e-20, cumulative = -1.52975e-19
Pressure gradient source: uncorrected Ubar = 0.1335, pressure gradient = 0.000116268
GAMG:  Solving for p, Initial residual = 0.00906517, Final residual = 3.4366e-07, No Iterations 5
time step continuity errors : sum local = 6.63439e-11, global = -3.50498e-23, cumulative = -1.5301e-19
Pressure gradient source: uncorrected Ubar = 0.1335, pressure gradient = 0.000116275
ExecutionTime = 14.86 s  ClockTime = 14 s

fieldAverage fieldAverage1 write:
    Calculating averages

    Writing average fields

Courant Number mean: 0.15113 max: 0.258689
Time = 0.8

PIMPLE: iteration 1
smoothSolver:  Solving for Ux, Initial residual = 0.00564549, Final residual = 6.48543e-07, No Iterations 2
smoothSolver:  Solving for Uy, Initial residual = 0.0308509, Final residual = 4.28088e-06, No Iterations 2
smoothSolver:  Solving for Uz, Initial residual = 0.0294929, Final residual = 3.60658e-06, No Iterations 2
Pressure gradient source: uncorrected Ubar = 0.1335, pressure gradient = 0.000116324
GAMG:  Solving for p, Initial residual = 0.0872193, Final residual = 0.00838027, No Iterations 1
time step continuity errors : sum local = 1.38014e-06, global = 2.62609e-22, cumulative = -1.52747e-19
Pressure gradient source: uncorrected Ubar = 0.1335, pressure gradient = 0.000116286
GAMG:  Solving for p, Initial residual = 0.00903411, Final residual = 5.94202e-07, No Iterations 5
time step continuity errors : sum local = 1.07593e-10, global = 7.28506e-20, cumulative = -7.98965e-20
Pressure gradient source: uncorrected Ubar = 0.1335, pressure gradient = 0.000116293
ExecutionTime = 16.78 s  ClockTime = 16 s

fieldAverage fieldAverage1 write:
    Calculating averages

    Writing average fields

Courant Number mean: 0.151117 max: 0.260956
Time = 0.9

PIMPLE: iteration 1
smoothSolver:  Solving for Ux, Initial residual = 0.0056395, Final residual = 6.50682e-07, No Iterations 2
smoothSolver:  Solving for Uy, Initial residual = 0.030838, Final residual = 4.22483e-06, No Iterations 2
smoothSolver:  Solving for Uz, Initial residual = 0.029501, Final residual = 3.61905e-06, No Iterations 2
Pressure gradient source: uncorrected Ubar = 0.1335, pressure gradient = 0.000116309
GAMG:  Solving for p, Initial residual = 0.0885221, Final residual = 0.00846298, No Iterations 1
time step continuity errors : sum local = 1.43042e-06, global = 4.35107e-20, cumulative = -3.63858e-20
Pressure gradient source: uncorrected Ubar = 0.1335, pressure gradient = 0.000116271
GAMG:  Solving for p, Initial residual = 0.00912638, Final residual = 3.29622e-07, No Iterations 5
time step continuity errors : sum local = 6.79134e-11, global = 1.80138e-20, cumulative = -1.8372e-20
Pressure gradient source: uncorrected Ubar = 0.1335, pressure gradient = 0.000116278
ExecutionTime = 18.34 s  ClockTime = 18 s

fieldAverage fieldAverage1 write:
    Calculating averages

    Writing average fields

Courant Number mean: 0.151104 max: 0.262246
Time = 1

PIMPLE: iteration 1
smoothSolver:  Solving for Ux, Initial residual = 0.00563455, Final residual = 6.52489e-07, No Iterations 2
smoothSolver:  Solving for Uy, Initial residual = 0.0308272, Final residual = 4.1665e-06, No Iterations 2
smoothSolver:  Solving for Uz, Initial residual = 0.0295108, Final residual = 3.6413e-06, No Iterations 2
Pressure gradient source: uncorrected Ubar = 0.1335, pressure gradient = 0.000116269
GAMG:  Solving for p, Initial residual = 0.0897867, Final residual = 0.0086484, No Iterations 1
time step continuity errors : sum local = 1.49755e-06, global = 6.38513e-21, cumulative = -1.19868e-20
Pressure gradient source: uncorrected Ubar = 0.1335, pressure gradient = 0.000116231
GAMG:  Solving for p, Initial residual = 0.00934151, Final residual = 3.21337e-07, No Iterations 5
time step continuity errors : sum local = 6.68368e-11, global = 4.93963e-20, cumulative = 3.74095e-20
Pressure gradient source: uncorrected Ubar = 0.1335, pressure gradient = 0.000116238
ExecutionTime = 20.98 s  ClockTime = 21 s

fieldAverage fieldAverage1 write:
    Calculating averages

    Writing average fields

Courant Number mean: 0.151091 max: 0.262536
Time = 1.1

PIMPLE: iteration 1
smoothSolver:  Solving for Ux, Initial residual = 0.00563016, Final residual = 6.52729e-07, No Iterations 2
smoothSolver:  Solving for Uy, Initial residual = 0.0308195, Final residual = 4.10049e-06, No Iterations 2
smoothSolver:  Solving for Uz, Initial residual = 0.0295239, Final residual = 3.66565e-06, No Iterations 2
Pressure gradient source: uncorrected Ubar = 0.1335, pressure gradient = 0.000116208
GAMG:  Solving for p, Initial residual = 0.0900971, Final residual = 0.00869491, No Iterations 1
time step continuity errors : sum local = 1.5372e-06, global = 3.52926e-20, cumulative = 7.27021e-20
Pressure gradient source: uncorrected Ubar = 0.1335, pressure gradient = 0.000116172
GAMG:  Solving for p, Initial residual = 0.00943055, Final residual = 3.72833e-07, No Iterations 5
time step continuity errors : sum local = 7.75085e-11, global = 5.55936e-20, cumulative = 1.28296e-19
Pressure gradient source: uncorrected Ubar = 0.1335, pressure gradient = 0.000116179
ExecutionTime = 22.47 s  ClockTime = 22 s

fieldAverage fieldAverage1 write:
    Calculating averages

    Writing average fields

Courant Number mean: 0.151082 max: 0.261528
Time = 1.2

PIMPLE: iteration 1
smoothSolver:  Solving for Ux, Initial residual = 0.0056262, Final residual = 6.54016e-07, No Iterations 2
smoothSolver:  Solving for Uy, Initial residual = 0.0308118, Final residual = 4.04013e-06, No Iterations 2
smoothSolver:  Solving for Uz, Initial residual = 0.029535, Final residual = 3.6852e-06, No Iterations 2
Pressure gradient source: uncorrected Ubar = 0.1335, pressure gradient = 0.000116132
GAMG:  Solving for p, Initial residual = 0.0892246, Final residual = 0.00865478, No Iterations 1
time step continuity errors : sum local = 1.55616e-06, global = 9.88912e-20, cumulative = 2.27187e-19
Pressure gradient source: uncorrected Ubar = 0.1335, pressure gradient = 0.000116096
GAMG:  Solving for p, Initial residual = 0.00939075, Final residual = 2.02047e-07, No Iterations 5
time step continuity errors : sum local = 4.68808e-11, global = 1.01136e-19, cumulative = 3.28323e-19
Pressure gradient source: uncorrected Ubar = 0.1335, pressure gradient = 0.000116104
ExecutionTime = 24.19 s  ClockTime = 24 s

fieldAverage fieldAverage1 write:
    Calculating averages

    Writing average fields

Courant Number mean: 0.151073 max: 0.259371
Time = 1.3

PIMPLE: iteration 1
smoothSolver:  Solving for Ux, Initial residual = 0.00562199, Final residual = 6.54955e-07, No Iterations 2
smoothSolver:  Solving for Uy, Initial residual = 0.0308195, Final residual = 3.97414e-06, No Iterations 2
smoothSolver:  Solving for Uz, Initial residual = 0.029539, Final residual = 3.70793e-06, No Iterations 2
Pressure gradient source: uncorrected Ubar = 0.1335, pressure gradient = 0.000116044
GAMG:  Solving for p, Initial residual = 0.0880449, Final residual = 0.00833014, No Iterations 1
time step continuity errors : sum local = 1.52143e-06, global = 6.31264e-20, cumulative = 3.9145e-19
Pressure gradient source: uncorrected Ubar = 0.1335, pressure gradient = 0.000116009
GAMG:  Solving for p, Initial residual = 0.00903097, Final residual = 4.2877e-07, No Iterations 6
time step continuity errors : sum local = 7.90851e-11, global = 1.52749e-20, cumulative = 4.06725e-19
Pressure gradient source: uncorrected Ubar = 0.1335, pressure gradient = 0.000116016
ExecutionTime = 26.27 s  ClockTime = 26 s

fieldAverage fieldAverage1 write:
    Calculating averages

    Writing average fields

Courant Number mean: 0.151064 max: 0.256077
Time = 1.4

PIMPLE: iteration 1
smoothSolver:  Solving for Ux, Initial residual = 0.00561766, Final residual = 6.56803e-07, No Iterations 2
smoothSolver:  Solving for Uy, Initial residual = 0.0308233, Final residual = 3.91494e-06, No Iterations 2
smoothSolver:  Solving for Uz, Initial residual = 0.0295415, Final residual = 3.7391e-06, No Iterations 2
Pressure gradient source: uncorrected Ubar = 0.1335, pressure gradient = 0.000115945
GAMG:  Solving for p, Initial residual = 0.0888442, Final residual = 0.00849682, No Iterations 1
time step continuity errors : sum local = 1.57683e-06, global = 9.78866e-20, cumulative = 5.04611e-19
Pressure gradient source: uncorrected Ubar = 0.1335, pressure gradient = 0.000115912
GAMG:  Solving for p, Initial residual = 0.00922818, Final residual = 5.77893e-07, No Iterations 6
time step continuity errors : sum local = 1.10208e-10, global = 5.77082e-20, cumulative = 5.62319e-19
Pressure gradient source: uncorrected Ubar = 0.1335, pressure gradient = 0.00011592
ExecutionTime = 28.92 s  ClockTime = 29 s

fieldAverage fieldAverage1 write:
    Calculating averages

    Writing average fields

Courant Number mean: 0.151052 max: 0.254389
Time = 1.5

PIMPLE: iteration 1
smoothSolver:  Solving for Ux, Initial residual = 0.00561174, Final residual = 6.5904e-07, No Iterations 2
smoothSolver:  Solving for Uy, Initial residual = 0.0308193, Final residual = 3.8675e-06, No Iterations 2
smoothSolver:  Solving for Uz, Initial residual = 0.0295403, Final residual = 3.76458e-06, No Iterations 2
Pressure gradient source: uncorrected Ubar = 0.1335, pressure gradient = 0.000115839
GAMG:  Solving for p, Initial residual = 0.0902849, Final residual = 0.00840231, No Iterations 1
time step continuity errors : sum local = 1.58218e-06, global = 4.58109e-21, cumulative = 5.66901e-19
Pressure gradient source: uncorrected Ubar = 0.1335, pressure gradient = 0.000115806
GAMG:  Solving for p, Initial residual = 0.00915603, Final residual = 2.0697e-07, No Iterations 5
time step continuity errors : sum local = 4.99489e-11, global = 3.07256e-21, cumulative = 5.69973e-19
Pressure gradient source: uncorrected Ubar = 0.1335, pressure gradient = 0.000115814
ExecutionTime = 31.1 s  ClockTime = 31 s

fieldAverage fieldAverage1 write:
    Calculating averages

    Writing average fields

Courant Number mean: 0.151041 max: 0.256909
Time = 1.6

PIMPLE: iteration 1
smoothSolver:  Solving for Ux, Initial residual = 0.00560581, Final residual = 6.61615e-07, No Iterations 2
smoothSolver:  Solving for Uy, Initial residual = 0.0308172, Final residual = 3.82273e-06, No Iterations 2
smoothSolver:  Solving for Uz, Initial residual = 0.0295449, Final residual = 3.77959e-06, No Iterations 2
Pressure gradient source: uncorrected Ubar = 0.1335, pressure gradient = 0.000115726
GAMG:  Solving for p, Initial residual = 0.0904273, Final residual = 0.00837861, No Iterations 1
time step continuity errors : sum local = 1.59741e-06, global = 1.59762e-20, cumulative = 5.85949e-19
Pressure gradient source: uncorrected Ubar = 0.1335, pressure gradient = 0.000115696
GAMG:  Solving for p, Initial residual = 0.00915817, Final residual = 5.03564e-07, No Iterations 5
time step continuity errors : sum local = 1.03017e-10, global = 6.3239e-20, cumulative = 6.49188e-19
Pressure gradient source: uncorrected Ubar = 0.1335, pressure gradient = 0.000115703
ExecutionTime = 32.8 s  ClockTime = 32 s

fieldAverage fieldAverage1 write:
    Calculating averages

    Writing average fields

Courant Number mean: 0.151027 max: 0.259307
Time = 1.7

PIMPLE: iteration 1
smoothSolver:  Solving for Ux, Initial residual = 0.00560286, Final residual = 6.63769e-07, No Iterations 2
smoothSolver:  Solving for Uy, Initial residual = 0.030817, Final residual = 3.78197e-06, No Iterations 2
smoothSolver:  Solving for Uz, Initial residual = 0.0295469, Final residual = 3.78802e-06, No Iterations 2
Pressure gradient source: uncorrected Ubar = 0.1335, pressure gradient = 0.000115608
GAMG:  Solving for p, Initial residual = 0.0889707, Final residual = 0.00834607, No Iterations 1
time step continuity errors : sum local = 1.61188e-06, global = 3.84471e-20, cumulative = 6.87635e-19
Pressure gradient source: uncorrected Ubar = 0.1335, pressure gradient = 0.000115579
GAMG:  Solving for p, Initial residual = 0.00906604, Final residual = 4.92656e-07, No Iterations 5
time step continuity errors : sum local = 1.05223e-10, global = 7.2786e-20, cumulative = 7.60422e-19
Pressure gradient source: uncorrected Ubar = 0.1335, pressure gradient = 0.000115587
ExecutionTime = 34.53 s  ClockTime = 34 s

fieldAverage fieldAverage1 write:
    Calculating averages

    Writing average fields

Courant Number mean: 0.151014 max: 0.260724
Time = 1.8

PIMPLE: iteration 1
smoothSolver:  Solving for Ux, Initial residual = 0.00559801, Final residual = 6.66071e-07, No Iterations 2
smoothSolver:  Solving for Uy, Initial residual = 0.0308093, Final residual = 3.74512e-06, No Iterations 2
smoothSolver:  Solving for Uz, Initial residual = 0.0295537, Final residual = 3.79421e-06, No Iterations 2
Pressure gradient source: uncorrected Ubar = 0.1335, pressure gradient = 0.000115485
GAMG:  Solving for p, Initial residual = 0.0912286, Final residual = 0.00845861, No Iterations 1
time step continuity errors : sum local = 1.65514e-06, global = -1.45731e-20, cumulative = 7.45848e-19
Pressure gradient source: uncorrected Ubar = 0.1335, pressure gradient = 0.000115459
GAMG:  Solving for p, Initial residual = 0.00924138, Final residual = 3.75616e-07, No Iterations 6
time step continuity errors : sum local = 7.54095e-11, global = -7.9147e-21, cumulative = 7.37934e-19
Pressure gradient source: uncorrected Ubar = 0.1335, pressure gradient = 0.000115466
ExecutionTime = 36.33 s  ClockTime = 36 s

fieldAverage fieldAverage1 write:
    Calculating averages

    Writing average fields

Courant Number mean: 0.151003 max: 0.261129
Time = 1.9

PIMPLE: iteration 1
smoothSolver:  Solving for Ux, Initial residual = 0.00559346, Final residual = 6.67681e-07, No Iterations 2
smoothSolver:  Solving for Uy, Initial residual = 0.0307931, Final residual = 3.72322e-06, No Iterations 2
smoothSolver:  Solving for Uz, Initial residual = 0.0295582, Final residual = 3.79694e-06, No Iterations 2
Pressure gradient source: uncorrected Ubar = 0.1335, pressure gradient = 0.000115358
GAMG:  Solving for p, Initial residual = 0.0929777, Final residual = 0.00880374, No Iterations 1
time step continuity errors : sum local = 1.7389e-06, global = -4.96531e-21, cumulative = 7.32968e-19
Pressure gradient source: uncorrected Ubar = 0.1335, pressure gradient = 0.000115334
GAMG:  Solving for p, Initial residual = 0.00963611, Final residual = 3.88732e-07, No Iterations 6
time step continuity errors : sum local = 7.89962e-11, global = 1.83062e-20, cumulative = 7.51275e-19
Pressure gradient source: uncorrected Ubar = 0.1335, pressure gradient = 0.000115342
ExecutionTime = 38.16 s  ClockTime = 38 s

fieldAverage fieldAverage1 write:
    Calculating averages

    Writing average fields

Courant Number mean: 0.150994 max: 0.260407
Time = 2

PIMPLE: iteration 1
smoothSolver:  Solving for Ux, Initial residual = 0.0055895, Final residual = 6.67669e-07, No Iterations 2
smoothSolver:  Solving for Uy, Initial residual = 0.030788, Final residual = 3.72514e-06, No Iterations 2
smoothSolver:  Solving for Uz, Initial residual = 0.02956, Final residual = 3.79936e-06, No Iterations 2
Pressure gradient source: uncorrected Ubar = 0.1335, pressure gradient = 0.000115229
GAMG:  Solving for p, Initial residual = 0.091362, Final residual = 0.00862185, No Iterations 1
time step continuity errors : sum local = 1.7136e-06, global = -4.96756e-20, cumulative = 7.01599e-19
Pressure gradient source: uncorrected Ubar = 0.1335, pressure gradient = 0.000115207
GAMG:  Solving for p, Initial residual = 0.00942365, Final residual = 4.02312e-07, No Iterations 5
time step continuity errors : sum local = 9.03109e-11, global = -2.09691e-20, cumulative = 6.8063e-19
Pressure gradient source: uncorrected Ubar = 0.1335, pressure gradient = 0.000115214
ExecutionTime = 39.79 s  ClockTime = 39 s

fieldAverage fieldAverage1 write:
    Calculating averages

    Writing average fields

Courant Number mean: 0.150987 max: 0.258492
Time = 2.1

PIMPLE: iteration 1
smoothSolver:  Solving for Ux, Initial residual = 0.00558605, Final residual = 6.67572e-07, No Iterations 2
smoothSolver:  Solving for Uy, Initial residual = 0.0307811, Final residual = 3.74167e-06, No Iterations 2
smoothSolver:  Solving for Uz, Initial residual = 0.0295708, Final residual = 3.81077e-06, No Iterations 2
Pressure gradient source: uncorrected Ubar = 0.1335, pressure gradient = 0.000115097
GAMG:  Solving for p, Initial residual = 0.0916406, Final residual = 0.0086255, No Iterations 1
time step continuity errors : sum local = 1.72358e-06, global = -4.67883e-22, cumulative = 6.80162e-19
Pressure gradient source: uncorrected Ubar = 0.1335, pressure gradient = 0.000115076
GAMG:  Solving for p, Initial residual = 0.0094304, Final residual = 4.68461e-07, No Iterations 5
time step continuity errors : sum local = 9.90272e-11, global = -3.82087e-20, cumulative = 6.41953e-19
Pressure gradient source: uncorrected Ubar = 0.1335, pressure gradient = 0.000115084
ExecutionTime = 41.29 s  ClockTime = 41 s

fieldAverage fieldAverage1 write:
    Calculating averages

    Writing average fields

Courant Number mean: 0.150979 max: 0.255547
Time = 2.2

PIMPLE: iteration 1
smoothSolver:  Solving for Ux, Initial residual = 0.00558059, Final residual = 6.67752e-07, No Iterations 2
smoothSolver:  Solving for Uy, Initial residual = 0.0307771, Final residual = 3.77159e-06, No Iterations 2
smoothSolver:  Solving for Uz, Initial residual = 0.0295809, Final residual = 3.81868e-06, No Iterations 2
Pressure gradient source: uncorrected Ubar = 0.1335, pressure gradient = 0.000114963
GAMG:  Solving for p, Initial residual = 0.0905926, Final residual = 0.00851621, No Iterations 1
time step continuity errors : sum local = 1.70998e-06, global = -8.62484e-20, cumulative = 5.55705e-19
Pressure gradient source: uncorrected Ubar = 0.1335, pressure gradient = 0.000114944
GAMG:  Solving for p, Initial residual = 0.00933989, Final residual = 7.78626e-07, No Iterations 5
time step continuity errors : sum local = 1.67008e-10, global = -6.82041e-20, cumulative = 4.87501e-19
Pressure gradient source: uncorrected Ubar = 0.1335, pressure gradient = 0.000114952
ExecutionTime = 42.98 s  ClockTime = 43 s

fieldAverage fieldAverage1 write:
    Calculating averages

    Writing average fields

Courant Number mean: 0.15097 max: 0.251557
Time = 2.3

PIMPLE: iteration 1
smoothSolver:  Solving for Ux, Initial residual = 0.0055758, Final residual = 6.69353e-07, No Iterations 2
smoothSolver:  Solving for Uy, Initial residual = 0.0307722, Final residual = 3.81491e-06, No Iterations 2
smoothSolver:  Solving for Uz, Initial residual = 0.0295917, Final residual = 3.83358e-06, No Iterations 2
Pressure gradient source: uncorrected Ubar = 0.1335, pressure gradient = 0.000114828
GAMG:  Solving for p, Initial residual = 0.0899334, Final residual = 0.00832194, No Iterations 1
time step continuity errors : sum local = 1.67554e-06, global = -6.9501e-20, cumulative = 4.18e-19
Pressure gradient source: uncorrected Ubar = 0.1335, pressure gradient = 0.00011481
GAMG:  Solving for p, Initial residual = 0.00916282, Final residual = 4.17212e-07, No Iterations 6
time step continuity errors : sum local = 8.60842e-11, global = -4.76681e-20, cumulative = 3.70332e-19
Pressure gradient source: uncorrected Ubar = 0.1335, pressure gradient = 0.000114818
ExecutionTime = 44.61 s  ClockTime = 44 s

fieldAverage fieldAverage1 write:
    Calculating averages

    Writing average fields

Courant Number mean: 0.150958 max: 0.253567
Time = 2.4

PIMPLE: iteration 1
smoothSolver:  Solving for Ux, Initial residual = 0.0055711, Final residual = 6.70734e-07, No Iterations 2
smoothSolver:  Solving for Uy, Initial residual = 0.0307723, Final residual = 3.86585e-06, No Iterations 2
smoothSolver:  Solving for Uz, Initial residual = 0.0295965, Final residual = 3.84583e-06, No Iterations 2
Pressure gradient source: uncorrected Ubar = 0.1335, pressure gradient = 0.000114691
GAMG:  Solving for p, Initial residual = 0.0885226, Final residual = 0.00816088, No Iterations 1
time step continuity errors : sum local = 1.65088e-06, global = -5.20187e-20, cumulative = 3.18313e-19
Pressure gradient source: uncorrected Ubar = 0.1335, pressure gradient = 0.000114676
GAMG:  Solving for p, Initial residual = 0.00893159, Final residual = 9.27238e-07, No Iterations 5
time step continuity errors : sum local = 1.9308e-10, global = -7.25606e-20, cumulative = 2.45753e-19
Pressure gradient source: uncorrected Ubar = 0.1335, pressure gradient = 0.000114683
ExecutionTime = 46.29 s  ClockTime = 46 s

fieldAverage fieldAverage1 write:
    Calculating averages

    Writing average fields

Courant Number mean: 0.150947 max: 0.256046
Time = 2.5

PIMPLE: iteration 1
smoothSolver:  Solving for Ux, Initial residual = 0.00556665, Final residual = 6.7138e-07, No Iterations 2
smoothSolver:  Solving for Uy, Initial residual = 0.0307774, Final residual = 3.90909e-06, No Iterations 2
smoothSolver:  Solving for Uz, Initial residual = 0.0295934, Final residual = 3.85472e-06, No Iterations 2
Pressure gradient source: uncorrected Ubar = 0.1335, pressure gradient = 0.000114554
GAMG:  Solving for p, Initial residual = 0.0904233, Final residual = 0.00825011, No Iterations 1
time step continuity errors : sum local = 1.6789e-06, global = -5.66029e-20, cumulative = 1.8915e-19
Pressure gradient source: uncorrected Ubar = 0.1335, pressure gradient = 0.00011454
GAMG:  Solving for p, Initial residual = 0.00905951, Final residual = 4.00737e-07, No Iterations 5
time step continuity errors : sum local = 9.23774e-11, global = -2.51242e-20, cumulative = 1.64025e-19
Pressure gradient source: uncorrected Ubar = 0.1335, pressure gradient = 0.000114548
ExecutionTime = 47.91 s  ClockTime = 48 s

fieldAverage fieldAverage1 write:
    Calculating averages

    Writing average fields

Courant Number mean: 0.150934 max: 0.257538
Time = 2.6

PIMPLE: iteration 1
smoothSolver:  Solving for Ux, Initial residual = 0.00556347, Final residual = 6.72793e-07, No Iterations 2
smoothSolver:  Solving for Uy, Initial residual = 0.0307727, Final residual = 3.95414e-06, No Iterations 2
smoothSolver:  Solving for Uz, Initial residual = 0.0295877, Final residual = 3.87019e-06, No Iterations 2
Pressure gradient source: uncorrected Ubar = 0.1335, pressure gradient = 0.000114415
GAMG:  Solving for p, Initial residual = 0.0894724, Final residual = 0.00823658, No Iterations 1
time step continuity errors : sum local = 1.68507e-06, global = -6.41932e-20, cumulative = 9.98321e-20
Pressure gradient source: uncorrected Ubar = 0.1335, pressure gradient = 0.000114403
GAMG:  Solving for p, Initial residual = 0.00905065, Final residual = 6.90653e-07, No Iterations 5
time step continuity errors : sum local = 1.49132e-10, global = -1.30831e-20, cumulative = 8.6749e-20
Pressure gradient source: uncorrected Ubar = 0.1335, pressure gradient = 0.000114411
ExecutionTime = 49.87 s  ClockTime = 49 s

fieldAverage fieldAverage1 write:
    Calculating averages

    Writing average fields

Courant Number mean: 0.150924 max: 0.258022
Time = 2.7

PIMPLE: iteration 1
smoothSolver:  Solving for Ux, Initial residual = 0.00555915, Final residual = 6.74045e-07, No Iterations 2
smoothSolver:  Solving for Uy, Initial residual = 0.0307662, Final residual = 4.01543e-06, No Iterations 2
smoothSolver:  Solving for Uz, Initial residual = 0.0295872, Final residual = 3.88379e-06, No Iterations 2
Pressure gradient source: uncorrected Ubar = 0.1335, pressure gradient = 0.000114276
GAMG:  Solving for p, Initial residual = 0.0916738, Final residual = 0.00842465, No Iterations 1
time step continuity errors : sum local = 1.73137e-06, global = -1.22755e-19, cumulative = -3.60063e-20
Pressure gradient source: uncorrected Ubar = 0.1335, pressure gradient = 0.000114267
GAMG:  Solving for p, Initial residual = 0.00929739, Final residual = 3.48216e-07, No Iterations 5
time step continuity errors : sum local = 8.22781e-11, global = -8.90282e-20, cumulative = -1.25035e-19
Pressure gradient source: uncorrected Ubar = 0.1335, pressure gradient = 0.000114274
ExecutionTime = 51.84 s  ClockTime = 51 s

fieldAverage fieldAverage1 write:
    Calculating averages

    Writing average fields

Courant Number mean: 0.150916 max: 0.257526
Time = 2.8

PIMPLE: iteration 1
smoothSolver:  Solving for Ux, Initial residual = 0.00555533, Final residual = 6.74298e-07, No Iterations 2
smoothSolver:  Solving for Uy, Initial residual = 0.0307621, Final residual = 4.07293e-06, No Iterations 2
smoothSolver:  Solving for Uz, Initial residual = 0.029586, Final residual = 3.9014e-06, No Iterations 2
Pressure gradient source: uncorrected Ubar = 0.1335, pressure gradient = 0.000114137
GAMG:  Solving for p, Initial residual = 0.0916474, Final residual = 0.00855384, No Iterations 1
time step continuity errors : sum local = 1.76049e-06, global = -4.9878e-20, cumulative = -1.74913e-19
Pressure gradient source: uncorrected Ubar = 0.1335, pressure gradient = 0.000114128
GAMG:  Solving for p, Initial residual = 0.00938802, Final residual = 6.44847e-07, No Iterations 6
time step continuity errors : sum local = 1.33566e-10, global = -1.57651e-19, cumulative = -3.32563e-19
Pressure gradient source: uncorrected Ubar = 0.1335, pressure gradient = 0.000114135
ExecutionTime = 53.81 s  ClockTime = 53 s

fieldAverage fieldAverage1 write:
    Calculating averages

    Writing average fields

Courant Number mean: 0.150908 max: 0.255856
Time = 2.9

PIMPLE: iteration 1
smoothSolver:  Solving for Ux, Initial residual = 0.00555064, Final residual = 6.73506e-07, No Iterations 2
smoothSolver:  Solving for Uy, Initial residual = 0.0307598, Final residual = 4.13538e-06, No Iterations 2
smoothSolver:  Solving for Uz, Initial residual = 0.0296046, Final residual = 3.91242e-06, No Iterations 2
Pressure gradient source: uncorrected Ubar = 0.1335, pressure gradient = 0.000113997
GAMG:  Solving for p, Initial residual = 0.0920198, Final residual = 0.00843719, No Iterations 1
time step continuity errors : sum local = 1.738e-06, global = -1.01245e-19, cumulative = -4.33808e-19
Pressure gradient source: uncorrected Ubar = 0.1335, pressure gradient = 0.00011399
GAMG:  Solving for p, Initial residual = 0.00925683, Final residual = 3.10252e-07, No Iterations 6
time step continuity errors : sum local = 6.9615e-11, global = -1.63658e-19, cumulative = -5.97466e-19
Pressure gradient source: uncorrected Ubar = 0.1335, pressure gradient = 0.000113997
ExecutionTime = 56.21 s  ClockTime = 56 s

fieldAverage fieldAverage1 write:
    Calculating averages

    Writing average fields

Courant Number mean: 0.1509 max: 0.253143
Time = 3

PIMPLE: iteration 1
smoothSolver:  Solving for Ux, Initial residual = 0.00554524, Final residual = 6.73113e-07, No Iterations 2
smoothSolver:  Solving for Uy, Initial residual = 0.0307538, Final residual = 4.18734e-06, No Iterations 2
smoothSolver:  Solving for Uz, Initial residual = 0.0296261, Final residual = 3.9233e-06, No Iterations 2
Pressure gradient source: uncorrected Ubar = 0.1335, pressure gradient = 0.000113857
GAMG:  Solving for p, Initial residual = 0.0911681, Final residual = 0.0084383, No Iterations 1
time step continuity errors : sum local = 1.73753e-06, global = -1.74917e-19, cumulative = -7.72383e-19
Pressure gradient source: uncorrected Ubar = 0.1335, pressure gradient = 0.000113852
GAMG:  Solving for p, Initial residual = 0.00928847, Final residual = 5.3582e-07, No Iterations 5
time step continuity errors : sum local = 1.2508e-10, global = -1.90498e-19, cumulative = -9.62881e-19
Pressure gradient source: uncorrected Ubar = 0.1335, pressure gradient = 0.000113859
ExecutionTime = 58.76 s  ClockTime = 58 s

fieldAverage fieldAverage1 write:
    Calculating averages

    Writing average fields

Courant Number mean: 0.15089 max: 0.249534
Time = 3.1

PIMPLE: iteration 1
smoothSolver:  Solving for Ux, Initial residual = 0.00554092, Final residual = 6.72318e-07, No Iterations 2
smoothSolver:  Solving for Uy, Initial residual = 0.0307543, Final residual = 4.24364e-06, No Iterations 2
smoothSolver:  Solving for Uz, Initial residual = 0.0296474, Final residual = 3.93246e-06, No Iterations 2
Pressure gradient source: uncorrected Ubar = 0.1335, pressure gradient = 0.000113716
GAMG:  Solving for p, Initial residual = 0.0904813, Final residual = 0.0083951, No Iterations 1
time step continuity errors : sum local = 1.72746e-06, global = -2.17543e-19, cumulative = -1.18042e-18
Pressure gradient source: uncorrected Ubar = 0.1335, pressure gradient = 0.000113713
GAMG:  Solving for p, Initial residual = 0.00921735, Final residual = 5.14654e-07, No Iterations 5
time step continuity errors : sum local = 1.18888e-10, global = -1.94672e-19, cumulative = -1.3751e-18
Pressure gradient source: uncorrected Ubar = 0.1335, pressure gradient = 0.00011372
ExecutionTime = 60.93 s  ClockTime = 61 s

fieldAverage fieldAverage1 write:
    Calculating averages

    Writing average fields

Courant Number mean: 0.15088 max: 0.249893
Time = 3.2

PIMPLE: iteration 1
smoothSolver:  Solving for Ux, Initial residual = 0.00553663, Final residual = 6.70628e-07, No Iterations 2
smoothSolver:  Solving for Uy, Initial residual = 0.0307496, Final residual = 4.28403e-06, No Iterations 2
smoothSolver:  Solving for Uz, Initial residual = 0.0296513, Final residual = 3.94647e-06, No Iterations 2
Pressure gradient source: uncorrected Ubar = 0.1335, pressure gradient = 0.000113576
GAMG:  Solving for p, Initial residual = 0.0906822, Final residual = 0.00836489, No Iterations 1
time step continuity errors : sum local = 1.723e-06, global = -1.9065e-19, cumulative = -1.56575e-18
Pressure gradient source: uncorrected Ubar = 0.1335, pressure gradient = 0.000113575
GAMG:  Solving for p, Initial residual = 0.00914529, Final residual = 2.99771e-07, No Iterations 5
time step continuity errors : sum local = 7.38807e-11, global = -1.79631e-19, cumulative = -1.74538e-18
Pressure gradient source: uncorrected Ubar = 0.1335, pressure gradient = 0.000113581
ExecutionTime = 62.46 s  ClockTime = 62 s

fieldAverage fieldAverage1 write:
    Calculating averages

    Writing average fields

Courant Number mean: 0.150871 max: 0.252352
Time = 3.3

PIMPLE: iteration 1
smoothSolver:  Solving for Ux, Initial residual = 0.00553384, Final residual = 6.69402e-07, No Iterations 2
smoothSolver:  Solving for Uy, Initial residual = 0.0307476, Final residual = 4.31475e-06, No Iterations 2
smoothSolver:  Solving for Uz, Initial residual = 0.0296475, Final residual = 3.94991e-06, No Iterations 2
Pressure gradient source: uncorrected Ubar = 0.1335, pressure gradient = 0.000113436
GAMG:  Solving for p, Initial residual = 0.0909956, Final residual = 0.00841839, No Iterations 1
time step continuity errors : sum local = 1.73514e-06, global = -1.64582e-19, cumulative = -1.90996e-18
Pressure gradient source: uncorrected Ubar = 0.1335, pressure gradient = 0.000113435
GAMG:  Solving for p, Initial residual = 0.00926868, Final residual = 8.65223e-07, No Iterations 4
time step continuity errors : sum local = 2.27634e-10, global = -1.43161e-19, cumulative = -2.05312e-18
Pressure gradient source: uncorrected Ubar = 0.1335, pressure gradient = 0.000113443
ExecutionTime = 64.01 s  ClockTime = 64 s

fieldAverage fieldAverage1 write:
    Calculating averages

    Writing average fields

Courant Number mean: 0.150861 max: 0.253855
Time = 3.4

PIMPLE: iteration 1
smoothSolver:  Solving for Ux, Initial residual = 0.00552989, Final residual = 6.68321e-07, No Iterations 2
smoothSolver:  Solving for Uy, Initial residual = 0.0307292, Final residual = 4.33637e-06, No Iterations 2
smoothSolver:  Solving for Uz, Initial residual = 0.0296391, Final residual = 3.95366e-06, No Iterations 2
Pressure gradient source: uncorrected Ubar = 0.1335, pressure gradient = 0.000113296
GAMG:  Solving for p, Initial residual = 0.0917676, Final residual = 0.00842938, No Iterations 1
time step continuity errors : sum local = 1.74035e-06, global = -1.68073e-19, cumulative = -2.22119e-18
Pressure gradient source: uncorrected Ubar = 0.1335, pressure gradient = 0.000113298
GAMG:  Solving for p, Initial residual = 0.00923134, Final residual = 9.52285e-07, No Iterations 4
time step continuity errors : sum local = 2.44663e-10, global = -1.90361e-19, cumulative = -2.41155e-18
Pressure gradient source: uncorrected Ubar = 0.1335, pressure gradient = 0.000113305
ExecutionTime = 65.55 s  ClockTime = 65 s

fieldAverage fieldAverage1 write:
    Calculating averages

    Writing average fields

Courant Number mean: 0.150852 max: 0.254333
Time = 3.5

PIMPLE: iteration 1
smoothSolver:  Solving for Ux, Initial residual = 0.00552675, Final residual = 6.67244e-07, No Iterations 2
smoothSolver:  Solving for Uy, Initial residual = 0.0307307, Final residual = 4.34876e-06, No Iterations 2
smoothSolver:  Solving for Uz, Initial residual = 0.0296287, Final residual = 3.96941e-06, No Iterations 2
Pressure gradient source: uncorrected Ubar = 0.1335, pressure gradient = 0.000113157
GAMG:  Solving for p, Initial residual = 0.0919046, Final residual = 0.00845356, No Iterations 1
time step continuity errors : sum local = 1.74754e-06, global = -1.15459e-19, cumulative = -2.52701e-18
Pressure gradient source: uncorrected Ubar = 0.1335, pressure gradient = 0.00011316
GAMG:  Solving for p, Initial residual = 0.00933918, Final residual = 4.07937e-07, No Iterations 5
time step continuity errors : sum local = 9.69659e-11, global = -1.15099e-19, cumulative = -2.64211e-18
Pressure gradient source: uncorrected Ubar = 0.1335, pressure gradient = 0.000113167
ExecutionTime = 67.18 s  ClockTime = 67 s

fieldAverage fieldAverage1 write:
    Calculating averages

    Writing average fields

Courant Number mean: 0.150845 max: 0.253959
Time = 3.6

PIMPLE: iteration 1
smoothSolver:  Solving for Ux, Initial residual = 0.00552192, Final residual = 6.65252e-07, No Iterations 2
smoothSolver:  Solving for Uy, Initial residual = 0.0307404, Final residual = 4.3488e-06, No Iterations 2
smoothSolver:  Solving for Uz, Initial residual = 0.0296362, Final residual = 3.98117e-06, No Iterations 2
Pressure gradient source: uncorrected Ubar = 0.1335, pressure gradient = 0.000113018
GAMG:  Solving for p, Initial residual = 0.0908261, Final residual = 0.00834138, No Iterations 1
time step continuity errors : sum local = 1.72233e-06, global = -1.44969e-19, cumulative = -2.78708e-18
Pressure gradient source: uncorrected Ubar = 0.1335, pressure gradient = 0.000113023
GAMG:  Solving for p, Initial residual = 0.00918357, Final residual = 7.85972e-07, No Iterations 4
time step continuity errors : sum local = 1.98674e-10, global = -1.32838e-19, cumulative = -2.91992e-18
Pressure gradient source: uncorrected Ubar = 0.1335, pressure gradient = 0.000113029
ExecutionTime = 68.85 s  ClockTime = 68 s

fieldAverage fieldAverage1 write:
    Calculating averages

    Writing average fields

Courant Number mean: 0.150837 max: 0.252542
Time = 3.7

PIMPLE: iteration 1
smoothSolver:  Solving for Ux, Initial residual = 0.00551621, Final residual = 6.63176e-07, No Iterations 2
smoothSolver:  Solving for Uy, Initial residual = 0.0307563, Final residual = 4.34272e-06, No Iterations 2
smoothSolver:  Solving for Uz, Initial residual = 0.029648, Final residual = 3.98963e-06, No Iterations 2
Pressure gradient source: uncorrected Ubar = 0.1335, pressure gradient = 0.000112879
GAMG:  Solving for p, Initial residual = 0.0914835, Final residual = 0.00846843, No Iterations 1
time step continuity errors : sum local = 1.7502e-06, global = -1.90245e-19, cumulative = -3.11016e-18
Pressure gradient source: uncorrected Ubar = 0.1335, pressure gradient = 0.000112885
GAMG:  Solving for p, Initial residual = 0.00927678, Final residual = 6.67861e-07, No Iterations 5
time step continuity errors : sum local = 1.56086e-10, global = -1.0992e-19, cumulative = -3.22008e-18
Pressure gradient source: uncorrected Ubar = 0.1335, pressure gradient = 0.000112892
ExecutionTime = 70.29 s  ClockTime = 70 s

fieldAverage fieldAverage1 write:
    Calculating averages

    Writing average fields

Courant Number mean: 0.150828 max: 0.250115
Time = 3.8

PIMPLE: iteration 1
smoothSolver:  Solving for Ux, Initial residual = 0.00551232, Final residual = 6.60221e-07, No Iterations 2
smoothSolver:  Solving for Uy, Initial residual = 0.0307521, Final residual = 4.32614e-06, No Iterations 2
smoothSolver:  Solving for Uz, Initial residual = 0.0296757, Final residual = 3.98004e-06, No Iterations 2
Pressure gradient source: uncorrected Ubar = 0.1335, pressure gradient = 0.000112741
GAMG:  Solving for p, Initial residual = 0.0912227, Final residual = 0.00841958, No Iterations 1
time step continuity errors : sum local = 1.73825e-06, global = -1.39126e-19, cumulative = -3.35921e-18
Pressure gradient source: uncorrected Ubar = 0.1335, pressure gradient = 0.000112749
GAMG:  Solving for p, Initial residual = 0.00931149, Final residual = 3.92926e-07, No Iterations 5
time step continuity errors : sum local = 9.59121e-11, global = -1.56838e-19, cumulative = -3.51605e-18
Pressure gradient source: uncorrected Ubar = 0.1335, pressure gradient = 0.000112755
ExecutionTime = 71.77 s  ClockTime = 71 s

fieldAverage fieldAverage1 write:
    Calculating averages

    Writing average fields

Courant Number mean: 0.150818 max: 0.246824
Time = 3.9

PIMPLE: iteration 1
smoothSolver:  Solving for Ux, Initial residual = 0.00550889, Final residual = 6.55892e-07, No Iterations 2
smoothSolver:  Solving for Uy, Initial residual = 0.0307471, Final residual = 4.30133e-06, No Iterations 2
smoothSolver:  Solving for Uz, Initial residual = 0.0296953, Final residual = 3.96887e-06, No Iterations 2
Pressure gradient source: uncorrected Ubar = 0.1335, pressure gradient = 0.000112604
GAMG:  Solving for p, Initial residual = 0.0916305, Final residual = 0.00838045, No Iterations 1
time step continuity errors : sum local = 1.72809e-06, global = -1.26008e-19, cumulative = -3.64206e-18
Pressure gradient source: uncorrected Ubar = 0.1335, pressure gradient = 0.000112612
GAMG:  Solving for p, Initial residual = 0.00919397, Final residual = 2.72095e-07, No Iterations 5
time step continuity errors : sum local = 6.82791e-11, global = -1.31542e-19, cumulative = -3.7736e-18
Pressure gradient source: uncorrected Ubar = 0.1335, pressure gradient = 0.000112618
ExecutionTime = 73.39 s  ClockTime = 73 s

fieldAverage fieldAverage1 write:
    Calculating averages

    Writing average fields

Courant Number mean: 0.150809 max: 0.246389
Time = 4

PIMPLE: iteration 1
smoothSolver:  Solving for Ux, Initial residual = 0.00550511, Final residual = 6.49847e-07, No Iterations 2
smoothSolver:  Solving for Uy, Initial residual = 0.0307391, Final residual = 4.26337e-06, No Iterations 2
smoothSolver:  Solving for Uz, Initial residual = 0.0297038, Final residual = 3.96013e-06, No Iterations 2
Pressure gradient source: uncorrected Ubar = 0.1335, pressure gradient = 0.000112467
GAMG:  Solving for p, Initial residual = 0.091883, Final residual = 0.00850745, No Iterations 1
time step continuity errors : sum local = 1.75259e-06, global = -9.50097e-20, cumulative = -3.86861e-18
Pressure gradient source: uncorrected Ubar = 0.1335, pressure gradient = 0.000112476
GAMG:  Solving for p, Initial residual = 0.00940114, Final residual = 3.59929e-07, No Iterations 5
time step continuity errors : sum local = 8.91569e-11, global = -1.40663e-19, cumulative = -4.00927e-18
Pressure gradient source: uncorrected Ubar = 0.1335, pressure gradient = 0.000112482
ExecutionTime = 74.93 s  ClockTime = 75 s

fieldAverage fieldAverage1 write:
    Calculating averages

    Writing average fields

Courant Number mean: 0.150799 max: 0.248172
Time = 4.1

PIMPLE: iteration 1
smoothSolver:  Solving for Ux, Initial residual = 0.00550148, Final residual = 6.44428e-07, No Iterations 2
smoothSolver:  Solving for Uy, Initial residual = 0.0307282, Final residual = 4.21206e-06, No Iterations 2
smoothSolver:  Solving for Uz, Initial residual = 0.0297017, Final residual = 3.94396e-06, No Iterations 2
Pressure gradient source: uncorrected Ubar = 0.1335, pressure gradient = 0.00011233
GAMG:  Solving for p, Initial residual = 0.0911172, Final residual = 0.00841328, No Iterations 1
time step continuity errors : sum local = 1.73131e-06, global = -7.41141e-20, cumulative = -4.08339e-18
Pressure gradient source: uncorrected Ubar = 0.1335, pressure gradient = 0.00011234
GAMG:  Solving for p, Initial residual = 0.00920817, Final residual = 5.09533e-07, No Iterations 5
time step continuity errors : sum local = 1.20373e-10, global = -1.39709e-19, cumulative = -4.2231e-18
Pressure gradient source: uncorrected Ubar = 0.1335, pressure gradient = 0.000112347
ExecutionTime = 76.27 s  ClockTime = 76 s

fieldAverage fieldAverage1 write:
    Calculating averages

    Writing average fields

Courant Number mean: 0.150791 max: 0.249845
Time = 4.2

PIMPLE: iteration 1
smoothSolver:  Solving for Ux, Initial residual = 0.00549931, Final residual = 6.40233e-07, No Iterations 2
smoothSolver:  Solving for Uy, Initial residual = 0.0307136, Final residual = 4.15272e-06, No Iterations 2
smoothSolver:  Solving for Uz, Initial residual = 0.0296923, Final residual = 3.9284e-06, No Iterations 2
Pressure gradient source: uncorrected Ubar = 0.1335, pressure gradient = 0.000112195
GAMG:  Solving for p, Initial residual = 0.0918735, Final residual = 0.00848562, No Iterations 1
time step continuity errors : sum local = 1.74879e-06, global = -1.23547e-19, cumulative = -4.34664e-18
Pressure gradient source: uncorrected Ubar = 0.1335, pressure gradient = 0.000112206
GAMG:  Solving for p, Initial residual = 0.00929753, Final residual = 3.31417e-07, No Iterations 5
time step continuity errors : sum local = 8.31077e-11, global = -1.4194e-19, cumulative = -4.48858e-18
Pressure gradient source: uncorrected Ubar = 0.1335, pressure gradient = 0.000112212
ExecutionTime = 77.84 s  ClockTime = 77 s

fieldAverage fieldAverage1 write:
    Calculating averages

    Writing average fields

Courant Number mean: 0.150785 max: 0.25052
Time = 4.3

PIMPLE: iteration 1
smoothSolver:  Solving for Ux, Initial residual = 0.00549671, Final residual = 6.35472e-07, No Iterations 2
smoothSolver:  Solving for Uy, Initial residual = 0.0307279, Final residual = 4.09084e-06, No Iterations 2
smoothSolver:  Solving for Uz, Initial residual = 0.0296877, Final residual = 3.91218e-06, No Iterations 2
Pressure gradient source: uncorrected Ubar = 0.1335, pressure gradient = 0.00011206
GAMG:  Solving for p, Initial residual = 0.0908363, Final residual = 0.00839748, No Iterations 1
time step continuity errors : sum local = 1.72933e-06, global = -1.68261e-19, cumulative = -4.65684e-18
Pressure gradient source: uncorrected Ubar = 0.1335, pressure gradient = 0.000112071
GAMG:  Solving for p, Initial residual = 0.00924247, Final residual = 5.85017e-07, No Iterations 5
time step continuity errors : sum local = 1.31986e-10, global = -1.17259e-19, cumulative = -4.7741e-18
Pressure gradient source: uncorrected Ubar = 0.1335, pressure gradient = 0.000112078
ExecutionTime = 79.3 s  ClockTime = 79 s

fieldAverage fieldAverage1 write:
    Calculating averages

    Writing average fields

Courant Number mean: 0.150777 max: 0.250248
Time = 4.4

PIMPLE: iteration 1
smoothSolver:  Solving for Ux, Initial residual = 0.00549107, Final residual = 6.30891e-07, No Iterations 2
smoothSolver:  Solving for Uy, Initial residual = 0.0307467, Final residual = 4.02032e-06, No Iterations 2
smoothSolver:  Solving for Uz, Initial residual = 0.0297019, Final residual = 3.89842e-06, No Iterations 2
Pressure gradient source: uncorrected Ubar = 0.1335, pressure gradient = 0.000111926
GAMG:  Solving for p, Initial residual = 0.0910069, Final residual = 0.00843384, No Iterations 1
time step continuity errors : sum local = 1.73518e-06, global = -1.08396e-19, cumulative = -4.8825e-18
Pressure gradient source: uncorrected Ubar = 0.1335, pressure gradient = 0.000111938
GAMG:  Solving for p, Initial residual = 0.00928317, Final residual = 3.62055e-07, No Iterations 5
time step continuity errors : sum local = 8.87414e-11, global = -2.13265e-19, cumulative = -5.09576e-18
Pressure gradient source: uncorrected Ubar = 0.1335, pressure gradient = 0.000111944
ExecutionTime = 80.87 s  ClockTime = 81 s

fieldAverage fieldAverage1 write:
    Calculating averages

    Writing average fields

Courant Number mean: 0.150767 max: 0.248963
Time = 4.5

PIMPLE: iteration 1
smoothSolver:  Solving for Ux, Initial residual = 0.00548607, Final residual = 6.2502e-07, No Iterations 2
smoothSolver:  Solving for Uy, Initial residual = 0.0307587, Final residual = 3.94556e-06, No Iterations 2
smoothSolver:  Solving for Uz, Initial residual = 0.0297162, Final residual = 3.87965e-06, No Iterations 2
Pressure gradient source: uncorrected Ubar = 0.1335, pressure gradient = 0.000111793
GAMG:  Solving for p, Initial residual = 0.0924673, Final residual = 0.00849176, No Iterations 1
time step continuity errors : sum local = 1.74813e-06, global = -1.39384e-19, cumulative = -5.23515e-18
Pressure gradient source: uncorrected Ubar = 0.1335, pressure gradient = 0.000111805
GAMG:  Solving for p, Initial residual = 0.00933164, Final residual = 2.97009e-07, No Iterations 5
time step continuity errors : sum local = 7.48967e-11, global = -1.78778e-19, cumulative = -5.41392e-18
Pressure gradient source: uncorrected Ubar = 0.1335, pressure gradient = 0.000111811
ExecutionTime = 82.34 s  ClockTime = 82 s

fieldAverage fieldAverage1 write:
    Calculating averages

    Writing average fields

Courant Number mean: 0.150758 max: 0.246837
Time = 4.6

PIMPLE: iteration 1
smoothSolver:  Solving for Ux, Initial residual = 0.00548343, Final residual = 6.18236e-07, No Iterations 2
smoothSolver:  Solving for Uy, Initial residual = 0.0307561, Final residual = 3.87715e-06, No Iterations 2
smoothSolver:  Solving for Uz, Initial residual = 0.0297252, Final residual = 3.85173e-06, No Iterations 2
Pressure gradient source: uncorrected Ubar = 0.1335, pressure gradient = 0.000111661
GAMG:  Solving for p, Initial residual = 0.0922614, Final residual = 0.00840981, No Iterations 1
time step continuity errors : sum local = 1.73045e-06, global = -9.38409e-20, cumulative = -5.50777e-18
Pressure gradient source: uncorrected Ubar = 0.1335, pressure gradient = 0.000111672
GAMG:  Solving for p, Initial residual = 0.00925021, Final residual = 5.6515e-07, No Iterations 5
time step continuity errors : sum local = 1.27509e-10, global = -1.95316e-19, cumulative = -5.70308e-18
Pressure gradient source: uncorrected Ubar = 0.1335, pressure gradient = 0.000111679
ExecutionTime = 83.77 s  ClockTime = 83 s

fieldAverage fieldAverage1 write:
    Calculating averages

    Writing average fields

Courant Number mean: 0.15075 max: 0.243905
Time = 4.7

PIMPLE: iteration 1
smoothSolver:  Solving for Ux, Initial residual = 0.00547981, Final residual = 6.10846e-07, No Iterations 2
smoothSolver:  Solving for Uy, Initial residual = 0.0307469, Final residual = 3.81851e-06, No Iterations 2
smoothSolver:  Solving for Uz, Initial residual = 0.0297399, Final residual = 3.82258e-06, No Iterations 2
Pressure gradient source: uncorrected Ubar = 0.1335, pressure gradient = 0.00011153
GAMG:  Solving for p, Initial residual = 0.0920312, Final residual = 0.00840807, No Iterations 1
time step continuity errors : sum local = 1.72626e-06, global = -1.43526e-19, cumulative = -5.84661e-18
Pressure gradient source: uncorrected Ubar = 0.1335, pressure gradient = 0.000111541
GAMG:  Solving for p, Initial residual = 0.0092816, Final residual = 2.22609e-07, No Iterations 5
time step continuity errors : sum local = 5.94535e-11, global = -1.57915e-19, cumulative = -6.00452e-18
Pressure gradient source: uncorrected Ubar = 0.1335, pressure gradient = 0.000111547
ExecutionTime = 85.25 s  ClockTime = 85 s

fieldAverage fieldAverage1 write:
    Calculating averages

    Writing average fields

Courant Number mean: 0.150742 max: 0.242289
Time = 4.8

PIMPLE: iteration 1
smoothSolver:  Solving for Ux, Initial residual = 0.00547708, Final residual = 6.04931e-07, No Iterations 2
smoothSolver:  Solving for Uy, Initial residual = 0.0307333, Final residual = 3.76222e-06, No Iterations 2
smoothSolver:  Solving for Uz, Initial residual = 0.0297496, Final residual = 3.79707e-06, No Iterations 2
Pressure gradient source: uncorrected Ubar = 0.1335, pressure gradient = 0.0001114
GAMG:  Solving for p, Initial residual = 0.0902542, Final residual = 0.00837651, No Iterations 1
time step continuity errors : sum local = 1.71605e-06, global = -6.04412e-20, cumulative = -6.06496e-18
Pressure gradient source: uncorrected Ubar = 0.1335, pressure gradient = 0.00011141
GAMG:  Solving for p, Initial residual = 0.00921905, Final residual = 2.48228e-07, No Iterations 5
time step continuity errors : sum local = 6.26171e-11, global = -1.05989e-19, cumulative = -6.17095e-18
Pressure gradient source: uncorrected Ubar = 0.1335, pressure gradient = 0.000111416
ExecutionTime = 86.69 s  ClockTime = 86 s

fieldAverage fieldAverage1 write:
    Calculating averages

    Writing average fields

Courant Number mean: 0.150732 max: 0.242773
Time = 4.9

PIMPLE: iteration 1
smoothSolver:  Solving for Ux, Initial residual = 0.00547422, Final residual = 5.99134e-07, No Iterations 2
smoothSolver:  Solving for Uy, Initial residual = 0.0307243, Final residual = 3.71037e-06, No Iterations 2
smoothSolver:  Solving for Uz, Initial residual = 0.0297577, Final residual = 3.76839e-06, No Iterations 2
Pressure gradient source: uncorrected Ubar = 0.1335, pressure gradient = 0.000111271
GAMG:  Solving for p, Initial residual = 0.0906157, Final residual = 0.00840254, No Iterations 1
time step continuity errors : sum local = 1.72445e-06, global = -8.11368e-20, cumulative = -6.25209e-18
Pressure gradient source: uncorrected Ubar = 0.1335, pressure gradient = 0.00011128
GAMG:  Solving for p, Initial residual = 0.00916459, Final residual = 2.77469e-07, No Iterations 5
time step continuity errors : sum local = 6.88114e-11, global = -1.65562e-19, cumulative = -6.41765e-18
Pressure gradient source: uncorrected Ubar = 0.1335, pressure gradient = 0.000111287
ExecutionTime = 88.32 s  ClockTime = 88 s

fieldAverage fieldAverage1 write:
    Calculating averages

    Writing average fields

Courant Number mean: 0.150726 max: 0.244605
Time = 5

PIMPLE: iteration 1
smoothSolver:  Solving for Ux, Initial residual = 0.00547239, Final residual = 5.95939e-07, No Iterations 2
smoothSolver:  Solving for Uy, Initial residual = 0.0307252, Final residual = 3.66589e-06, No Iterations 2
smoothSolver:  Solving for Uz, Initial residual = 0.0297523, Final residual = 3.73738e-06, No Iterations 2
Pressure gradient source: uncorrected Ubar = 0.1335, pressure gradient = 0.000111142
GAMG:  Solving for p, Initial residual = 0.0924857, Final residual = 0.00839738, No Iterations 1
time step continuity errors : sum local = 1.72239e-06, global = -1.1076e-19, cumulative = -6.52841e-18
Pressure gradient source: uncorrected Ubar = 0.1335, pressure gradient = 0.000111151
GAMG:  Solving for p, Initial residual = 0.00926522, Final residual = 3.36138e-07, No Iterations 5
time step continuity errors : sum local = 7.88982e-11, global = -1.81362e-19, cumulative = -6.70977e-18
Pressure gradient source: uncorrected Ubar = 0.1335, pressure gradient = 0.000111157
ExecutionTime = 89.79 s  ClockTime = 89 s

fieldAverage fieldAverage1 write:
    Calculating averages

    Writing average fields

End

